LAMMPS (23 Jun 2022)
clear
units       real
dimension   3
boundary    p p p
atom_style  charge

#atom_modify map array
variable dt equal .001

read_data data/SilicaCrystal3x.data
Reading data file ...
  orthogonal box = (0 0 0) to (21.48 21.48 21.48)
  reading atoms ...
  648 atoms
  reading velocities ...
  648 velocities
#read_data data/risingTChkPt.data

pair_style	    reaxff topcon.control
pair_coeff	    * * potential/HOSi.reax H O Si
#Pair style reaxff requires use of exactly one of the fix qeq/reaxff or fix qeq/shielded or fix acks2/reaxff commands

neighbor        2.5 bin
neigh_modify    every 10 delay 0 check no

timestep 0.001

thermo 1000
dump d1 all custom 200 equilibrium.dump id type q x y z ix iy iz mass element vx vy vz
dump_modify d1 element H O Si

fix r1 all qeq/reaxff 1 0.0 10.0 1e-6 reaxff

# minimize 0 1.0e-6 1000 1000
# thermo 100

#velocity all create 100.0 4928459 rot yes dist gaussian
#fix f1 all nve/limit 0.01
fix f3 all nvt temp 10 10 100

run 200000

CITE-CITE-CITE-CITE-CITE-CITE-CITE-CITE-CITE-CITE-CITE-CITE-CITE

Your simulation uses code contributions which should be cited:

- pair reaxff command:

@Article{Aktulga12,
 author = {H. M. Aktulga, J. C. Fogarty, S. A. Pandit, A. Y. Grama},
 title = {Parallel reactive molecular dynamics: Numerical methods and algorithmic techniques},
 journal = {Parallel Computing},
 year =    2012,
 volume =  38,
 pages =   {245--259}
}

- fix qeq/reaxff command:

@Article{Aktulga12,
 author = {H. M. Aktulga, J. C. Fogarty, S. A. Pandit, A. Y. Grama},
 title = {Parallel reactive molecular dynamics: Numerical methods and algorithmic techniques},
 journal = {Parallel Computing},
 year =    2012,
 volume =  38,
 pages =   {245--259}
}

CITE-CITE-CITE-CITE-CITE-CITE-CITE-CITE-CITE-CITE-CITE-CITE-CITE

  update every 10 steps, delay 0 steps, check no
Step          Temp          E_pair         E_mol          TotEng         Press
0   0             -35545.699      0             -35545.699     -580076.54
Averages over the last 101 of 201 rows, steps 100000 to 200000:
Temp E_pair E_mol TotEng Press
2.68249 8.68331e+06 0 8.68332e+06 1.14437e+07
Loop time of 3166.4 on 4 procs for 200000 steps with 648 atoms

#write_data data/risingTChkPt.data
