LAMMPS (23 Jun 2022 - Update 1)
clear
units         metal
dimension     3
boundary     p p p
atom_style	    charge
variable boxdim equal 5.14
variable latticedim equal 5.14

#lattice diamond $(v_latticedim)#Ang
#atom_modify map array
variable dt equal 0.001

#region sim block $(-v_boxdim2) $(v_boxdim/2) $(-v_boxdim/2) $(v_boxdim/2) $(-v_boxdim/2) $(v_boxdim/2)
region sim block 0 $(v_boxdim) 0 $(v_boxdim) 0 $(v_boxdim)
region sim block 0 5.1399999999999996803 0 $(v_boxdim) 0 $(v_boxdim)
region sim block 0 5.1399999999999996803 0 5.1399999999999996803 0 $(v_boxdim)
region sim block 0 5.1399999999999996803 0 5.1399999999999996803 0 5.1399999999999996803
create_box 3 sim
Created orthogonal box = (0 0 0) to (5.14 5.14 5.14)

create_atoms 3 single 2.6 2.6 2.6
Created 1 atoms
create_atoms 2 single 1.5 1.5 1.5
Created 1 atoms
create_atoms 2 single 4 4 4
Created 1 atoms

# create_atoms 1 single -1.154403 1.999485 1.801733
# create_atoms 1 single -1.154403 -1.999485 0.000000
# create_atoms 2 single 1.375998 1.140800 4.245244
# create_atoms 2 single -1.675961 0.621249 7.848711
# create_atoms 2 single 0.299963 -1.762049 6.046977
# create_atoms 2 single 0.299963 1.762049 4.245244
# create_atoms 2 single -1.675961 -0.621249 -0.64177
# create_atoms 2 single 1.375998 -1.140800 -2.443511

mass         1 1.00784 #H
mass         2 15.9991 #O
mass         3 28.0855 #Si

pair_style	    reaxff NULL#/c lmp_control.lmp
pair_coeff	    * * ../potential/HOSi.reax H O Si

neighbor	    2 bin
neigh_modify	every 10 delay 0 check no

timestep 0.001

dump D1 all atom 10 testing.dump
thermo 10

fix r1 all qeq/reax 1 0.0 10.0 1e-6 reaxff

min_style hftn
minimize 1.0e-6 1.0e-6 1000 1000

CITE-CITE-CITE-CITE-CITE-CITE-CITE-CITE-CITE-CITE-CITE-CITE-CITE

Your simulation uses code contributions which should be cited:

- pair reaxff command:

@Article{Aktulga12,
 author = {H. M. Aktulga, J. C. Fogarty, S. A. Pandit, A. Y. Grama},
 title = {Parallel reactive molecular dynamics: Numerical methods and algorithmic techniques},
 journal = {Parallel Computing},
 year =    2012,
 volume =  38,
 pages =   {245--259}
}

- fix qeq/reaxff command:

@Article{Aktulga12,
 author = {H. M. Aktulga, J. C. Fogarty, S. A. Pandit, A. Y. Grama},
 title = {Parallel reactive molecular dynamics: Numerical methods and algorithmic techniques},
 journal = {Parallel Computing},
 year =    2012,
 volume =  38,
 pages =   {245--259}
}

CITE-CITE-CITE-CITE-CITE-CITE-CITE-CITE-CITE-CITE-CITE-CITE-CITE

  update every 1 steps, delay 0 steps, check yes
Step          Temp          E_pair         E_mol          TotEng         Press
0   0             -226.57942      0             -226.57942     -2872382.8
Loop time of 0.102303 on 2 procs for 29 steps with 3 atoms

Minimization stats:
  Stopping criterion = energy tolerance
  Energy initial, next-to-last, final =
  Force two-norm initial, final = 249.21809 330.6943
  Force max component initial, final = 112.56948 151.76934
  Final line search alpha, max atom move = 0 0
  Iterations, force evaluations = 29 184

velocity all create 300.0 4928459 rot yes dist gaussian
# fix f1 all temp/berendsen 1.0 1 10
# run 100

fix f2 all nvt temp 300 1000 .1
run 1000
Step          Temp          E_pair         E_mol          TotEng         Press
30   300           -475.42733      0             -475.34977     -2518937.1
Averages over the last 51 of 101 rows, steps 530 to 1030:
Temp E_pair E_mol TotEng Press
0.00085472 -335.447 0 -335.447 -1117.93
Loop time of 0.662459 on 2 procs for 1000 steps with 3 atoms

#fix f2 all npt temp 300.0 1000.0 100.0 iso 0.0 0.0 1000.0

# fix f2 all nvt temp 20 20 100
# fix f1 all nve
# run	1000
